powerfactory/powerfactory-converter/src/test/resources/Transformer-Phase-Neutral-with-mTaps.dgs
$$General;ID(a:40);Descr(a:40);Val(a:40)
  1;Version;5.0


$$ChaRef;ID(a:40);loc_name(a:40);fold_id(p)
  2;fline;8
  3;fline;9
  4;ratfac;16


$$ChaVec;ID(a:40);loc_name(a:40);fold_id(p);scale(p);usage(i);approx(i);vector:SIZEROW(i);vector:0(r);vector:1(r);vector:2(r)
  5;vec_1;;;0;0;3;100;199,98;199,98
  6;vec_2;;;0;0;3;100;199,98;199,98
  7;vec_3;;;0;0;3;100;656,101706036745;656,101706036745


$$ElmLne;ID(a:40);loc_name(a:40);for_name(a:50);fold_id(p);typ_id(p);dline(r);fline(r);GPScoords:SIZEROW(i);GPScoords:SIZECOL(i);nlnum(i);inAir(i)
  8;lne_1_2_1;;11;34;52;1;0;0;1;0
  9;lne_1_3_1;;11;35;52;1;0;0;1;0


$$ElmLod;ID(a:40);loc_name(a:40);for_name(a:50);fold_id(p);typ_id(p);mode_inp(a:3);slini(r);plini(r);qlini(r);coslini(r);pf_recap(i);scale0(r);i_scale(i);outserv(i);classif(a:20)
  10;lod_3_1;;11;36;PQ;55,9017;50;25;0,894427;0;1;0;0;


$$ElmNet;ID(a:40);loc_name(a:40);for_name(a:50);fold_id(p);frnom(r);pDiagram(p)
  11;1 aux_1;;;60;


$$ElmSym;ID(a:40);loc_name(a:40);for_name(a:50);fold_id(p);typ_id(p);cCategory(a);ngnum(i);i_mot(i);pgini(r);qgini(r);cosgini(r);usetp(r);pf_recap(i);q_min(r);q_max(r);outserv(i);av_mode(a);phtech(i)
  12;sym_1_1;;11;37;Others;1;0;50,23;0;1;1,06;0;0;0;0;constv;1


$$ElmTerm;ID(a:40);loc_name(a:40);for_name(a:50);fold_id(p);typ_id(p);systype(i);iUsage(i);uknom(r);unknom(r);iminus(i);outserv(i);GPSlat(r);GPSlon(r);vtarget(r);m:u(r);m:phiu(r)
  13;1 Bus 1-Slack;;11;;0;0;400;230,9401;0;0;0;0;1;1,05999994277954;0
  14;2 Bus 2;;11;;0;0;400;230,9401;0;0;0;0;1;1,05943880914233;-0,79481876714070
  15;3 Bus 2-Load;;11;;0;0;400;230,9401;0;0;0;0;1;1,05889959262692;-0,85149615072284


$$ElmTr2;ID(a:40);loc_name(a:40);fold_id(p);for_name(a:50);typ_id(p);ntnum(i);outserv(i);nntap(i);i_auto(i);ntrcn(i);usetp(r);usp_low(r);usp_up(r);t2ldc(i);mTaps:SIZEROW(i);mTaps:SIZECOL(i);mTaps:0:0(r);mTaps:0:1(r);mTaps:0:2(r);mTaps:0:3(r);mTaps:0:4(r);mTaps:1:0(r);mTaps:1:1(r);mTaps:1:2(r);mTaps:1:3(r);mTaps:1:4(r);mTaps:2:0(r);mTaps:2:1(r);mTaps:2:2(r);mTaps:2:3(r);mTaps:2:4(r)
  16;trf_2_3_1;11;;38;1;0;0;0;1;1;0,99;1,01;0;3;5;400;-10;7,04088;0;1;400;0;7,04088;0;1;400;10;7,04088;0;1


$$ElmZone;ID(a:40);loc_name(a:40);for_name(a:50);fold_id(p);icolor(i);curscale(r)
  17;1_aux_1;;;1;1


$$StaCubic;ID(a:40);loc_name(a:40);for_name(a:50);fold_id(p);obj_bus(i);obj_id(p);it2p1(i);it2p2(i);it2p3(i)
  18;lne_1_2_1;;13;0;8;0;1;2
  19;lne_1_3_1;;13;0;9;0;1;2
  20;sym_1_1;;13;0;12;0;1;2
  21;lne_1_2_1;;14;1;8;0;1;2
  22;trf_2_3_1;;14;0;16;0;1;2
  23;lne_1_3_1;;15;1;9;0;1;2
  24;lod_3_1;;15;0;10;0;1;2
  25;trf_2_3_1;;15;1;16;0;1;2


$$StaSwitch;ID(a:40);loc_name(a:40);for_name(a:50);fold_id(p);on_off(i);typ_id(p);aUsage(a)
  26;Switch;;18;1;;cbk
  27;Switch;;19;1;;cbk
  28;Switch;;20;1;;cbk
  29;Switch;;21;1;;cbk
  30;Switch;;22;1;;cbk
  31;Switch;;23;1;;cbk
  32;Switch;;24;1;;cbk
  33;Switch;;25;1;;cbk


$$TypLne;ID(a:40);loc_name(a:40);for_name(a:50);fold_id(p);uline(r);sline(r);InomAir(r);cohl_(i);rline(r);xline(r);rline0(r);xline0(r);Ithr(r);tmax(r);rtemp(r);systp(i);nlnph(i);nneutral(i);frnom(r);mlei(a:2);bline(r);bline0(r)
  34;tlne_1_2_1;;11;400;7,216878;1;0;0,596307;1,820615;999999;999999;0;80;80;0;3;0;60;Cu;4,159616;0
  35;tlne_1_3_1;;11;400;7,216878;1;0;0,596307;1,820615;999999;999999;0;80;80;0;3;0;60;Cu;4,159616;0


$$TypLod;ID(a:40);loc_name(a:40);for_name(a:50);fold_id(p);systp(i);phtech(i);aP(r);bP(r);kpu0(r);kpu1(r);kpu(r);aQ(r);bQ(r);kqu0(r);kqu1(r);kqu(r)
  36;lodtyp_pq;;11;0;0;1;0;0;1;2;1;0;0;1;2


$$TypSym;ID(a:40);loc_name(a:40);for_name(a:50);fold_id(p);sgn(r);ugn(r);cosn(r);xd(r);xq(r);xdsss(r);rstr(r);xdsat(r);satur(i);nphase(i);nslty(i);x0sy(r);r0sy(r);x2sy(r);r2sy(r);iopt_data(i);xds(r);xqs(r);xl(r);xdss(r);xqss(r);xrlq(r);tds(r);tqs(r);tdss(r);tqss(r)
  37;tsym_1_1;;11;615;400;1;2;2;1;0;1,2;0;3;2;1;0;1;0;1;0,3;0,3;0,1;1;1;0;1;0;0,05;0,05


$$TypTr2;ID(a:40);loc_name(a:40);for_name(a:50);fold_id(p);nt2ph(i);strn(r);frnom(r);utrn_h(r);utrn_l(r);uktr(r);pcutr(r);uk0tr(r);ur0tr(r);tr2cn_h(a:2);tr2cn_l(a:2);nt2ag(r);curmg(r);pfe(r);zx0hl_n(r);itapch(i);tap_side(i);dutap(r);phitr(r);nntap0(i);ntpmn(i);ntpmx(i);manuf(a:20)
  38;ttrf_2_3_1;;11;3;1524;60;400;400;7,04088;0;0;0;D;D;0;0;0;100;1;0;0;0;0;-1;1;
